data_00000001
_symmetry_cell_setting           triclinic
_symmetry_space_group_name_H-M   'P 1'
_symmetry_Int_Tables_number      1
_space_group_name_Hall           'P 1'
loop_
_symmetry_equiv_pos_site_id
_symmetry_equiv_pos_as_xyz
1 x,y,z
_cell_length_a                   25.832
_cell_length_b                   25.832
_cell_length_c                   25.832
_cell_angle_alpha                90
_cell_angle_beta                 90
_cell_angle_gamma                90
loop_
_atom_site_label
_atom_site_type_symbol
_atom_site_fract_x
_atom_site_fract_y
_atom_site_fract_z
C C 0.60247 0.540531 0.23707
N N 0.581875 0.574481 0.271717
O O 0.599412 0.493032 0.239703
C C 0.658176 0.641143 0.152718
C C 0.681519 0.610948 0.113812
N N 0.679661 0.558958 0.114238
C C 0.654227 0.537124 0.153956
C C 0.630768 0.567165 0.193016
N N 0.632742 0.619271 0.192397
H H 0.587024 0.613232 0.265407
H H 0.561977 0.560855 0.302958
H H 0.660111 0.683803 0.151672
H H 0.702307 0.629529 0.0814107
H H 0.651711 0.49458 0.155814
C C 0.509175 0.539602 0.039602
N N 0.486103 0.501084 0.0672035
O O 0.522569 0.536737 -0.00603902
C C 0.509871 0.633207 0.147182
C C 0.533331 0.676487 0.123761
N N 0.548893 0.676061 0.0740941
C C 0.540841 0.631929 0.0478089
C C 0.517343 0.588495 0.0710746
N N 0.501819 0.589192 0.120858
H H 0.476734 0.508091 0.105063
H H 0.478709 0.466398 0.0498993
H H 0.497329 0.634368 0.188023
H H 0.539679 0.712488 0.145943
H H 0.552996 0.629878 0.0069681
C C 0.489587 0.477741 0.299396
N N 0.5084 0.434151 0.276556
O O 0.499768 0.492451 0.343566
C C 0.411621 0.51804 0.187016
C C 0.38913 0.564145 0.205365
N N 0.398575 0.582456 0.253136
C C 0.430822 0.554312 0.282634
C C 0.45343 0.508091 0.264478
N N 0.443829 0.489935 0.216514
H H 0.497058 0.425945 0.239509
H H 0.533098 0.410731 0.296531
H H 0.403376 0.503639 0.147608
H H 0.36269 0.58683 0.180551
H H 0.439648 0.5679 0.32212
C C 0.431442 0.675441 0.91197
N N 0.439455 0.629142 0.888123
O O 0.442049 0.718179 0.893775
C C 0.37531 0.618884 1.03023
C C 0.364703 0.663518 1.05965
N N 0.375232 0.711366 1.04212
C C 0.396562 0.714424 0.994813
C C 0.407286 0.669828 0.965198
N N 0.396601 0.62198 0.982967
H H 0.429041 0.596082 0.907247
H H 0.45552 0.628252 0.852083
H H 0.366329 0.579901 1.04529
H H 0.347128 0.660344 1.09852
H H 0.405853 0.752903 0.978941
C C 0.352663 0.538944 0.842211
N N 0.379994 0.552996 0.799435
O O 0.329243 0.568752 0.871129
C C 0.379452 0.399543 0.828856
C C 0.352779 0.379181 0.871826
N N 0.326417 0.409453 0.904885
C C 0.326804 0.460437 0.89482
C C 0.353438 0.481031 0.85185
N N 0.3798 0.450488 0.818791
H H 0.397917 0.524621 0.778376
H H 0.382084 0.59105 0.789215
H H 0.400898 0.373993 0.802067
H H 0.352857 0.33714 0.879529
H H 0.305667 0.486683 0.920951
O O 0.133981 0.281898 0.218102
C C 0.111296 0.25 0.25
C C 0.0538092 0.25 0.25
C C 0.0269046 0.282905 0.217095
H H 0.0447894 0.304893 0.195107
O O 0.133981 0.718102 0.781898
C C 0.111296 0.75 0.75
C C 0.0538092 0.75 0.75
C C 0.0269046 0.717095 0.782905
H H 0.0447894 0.695107 0.804893
O O 0.133981 0.781898 0.718102
C C 0.0269046 0.782905 0.717095
H H 0.0447894 0.804893 0.695107
O O 0.133981 0.218102 0.281898
C C 0.0269046 0.217095 0.282905
H H 0.0447894 0.195107 0.304893
Zn Zn 0.206604 0.293396 0.206604
Zn Zn 0.206604 0.706604 0.793396
Zn Zn 0.206604 0.206604 0.293396
Zn Zn 0.206604 0.793396 0.706604
O O 0.218102 0.133981 0.281898
C C 0.25 0.111296 0.25
C C 0.25 0.0538092 0.25
C C 0.217095 0.0269046 0.282905
H H 0.195107 0.0447894 0.304893
O O 0.781898 0.133981 0.718102
C C 0.75 0.111296 0.75
C C 0.75 0.0538092 0.75
C C 0.782905 0.0269046 0.717095
H H 0.804893 0.0447894 0.695107
O O 0.281898 0.133981 0.218102
C C 0.282905 0.0269046 0.217095
H H 0.304893 0.0447894 0.195107
O O 0.718102 0.133981 0.781898
C C 0.717095 0.0269046 0.782905
H H 0.695107 0.0447894 0.804893
Zn Zn 0.293396 0.206604 0.206604
Zn Zn 0.706604 0.206604 0.793396
Zn Zn 0.793396 0.206604 0.706604
O O 0.25 0.25 0.25
O O 0.281898 0.218102 0.133981
C C 0.25 0.25 0.111296
C C 0.25 0.25 0.0538092
C C 0.282905 0.217095 0.0269046
H H 0.304893 0.195107 0.0447894
Zn Zn 0.706604 0.793396 0.206604
O O 0.75 0.75 0.25
O O 0.718102 0.781898 0.133981
C C 0.75 0.75 0.111296
C C 0.75 0.75 0.0538092
C C 0.717095 0.782905 0.0269046
H H 0.695107 0.804893 0.0447894
O O 0.75 0.25 0.75
Zn Zn 0.293396 0.793396 0.793396
O O 0.25 0.75 0.75
Zn Zn 0.793396 0.706604 0.206604
Zn Zn 0.793396 0.293396 0.793396
Zn Zn 0.793396 0.793396 0.293396
Zn Zn 0.206604 0.293396 0.793396
O O 0.25 0.25 0.75
Zn Zn 0.793396 0.706604 0.793396
O O 0.75 0.75 0.75
Zn Zn 0.206604 0.706604 0.206604
O O 0.25 0.75 0.25
O O 0.218102 0.718102 0.133981
C C 0.25 0.75 0.111296
C C 0.25 0.75 0.0538092
C C 0.217095 0.717095 0.0269046
H H 0.195107 0.695107 0.0447894
Zn Zn 0.793396 0.293396 0.206604
O O 0.75 0.25 0.25
O O 0.781898 0.281898 0.133981
C C 0.75 0.25 0.111296
C C 0.75 0.25 0.0538092
C C 0.782905 0.282905 0.0269046
H H 0.804893 0.304893 0.0447894
Zn Zn 0.293396 0.206604 0.793396
O O 0.281898 0.133981 0.781898
C C 0.25 0.111296 0.75
C C 0.25 0.0538092 0.75
C C 0.282905 0.0269046 0.782905
H H 0.304893 0.0447894 0.804893
Zn Zn 0.706604 0.206604 0.206604
O O 0.718102 0.133981 0.218102
C C 0.75 0.111296 0.25
C C 0.75 0.0538092 0.25
C C 0.717095 0.0269046 0.217095
H H 0.695107 0.0447894 0.195107
Zn Zn 0.706604 0.793396 0.793396
O O 0.718102 0.866019 0.781898
C C 0.75 0.888704 0.75
C C 0.75 0.946191 0.75
C C 0.717095 0.973095 0.782905
H H 0.695107 0.955211 0.804893
Zn Zn 0.293396 0.793396 0.206604
O O 0.281898 0.866019 0.218102
C C 0.25 0.888704 0.25
C C 0.25 0.946191 0.25
C C 0.282905 0.973095 0.217095
H H 0.304893 0.955211 0.195107
Zn Zn 0.206604 0.206604 0.706604
O O 0.133981 0.218102 0.718102
C C 0.111296 0.25 0.75
C C 0.0538092 0.25 0.75
C C 0.0269046 0.217095 0.717095
H H 0.0447894 0.195107 0.695107
Zn Zn 0.206604 0.793396 0.293396
O O 0.133981 0.781898 0.281898
C C 0.111296 0.75 0.25
C C 0.0538092 0.75 0.25
C C 0.0269046 0.782905 0.282905
H H 0.0447894 0.804893 0.304893
Zn Zn 0.793396 0.206604 0.293396
O O 0.866019 0.218102 0.281898
C C 0.888704 0.25 0.25
C C 0.946191 0.25 0.25
C C 0.973095 0.217095 0.282905
H H 0.955211 0.195107 0.304893
Zn Zn 0.793396 0.793396 0.706604
O O 0.866019 0.781898 0.718102
C C 0.888704 0.75 0.75
C C 0.946191 0.75 0.75
C C 0.973095 0.782905 0.717095
H H 0.955211 0.804893 0.695107
O O 0.281898 0.781898 0.133981
C C 0.282905 0.782905 0.0269046
H H 0.304893 0.804893 0.0447894
O O 0.718102 0.218102 0.133981
C C 0.717095 0.217095 0.0269046
H H 0.695107 0.195107 0.0447894
O O 0.866019 0.718102 0.781898
C C 0.973095 0.717095 0.782905
H H 0.955211 0.695107 0.804893
O O 0.866019 0.281898 0.218102
C C 0.973095 0.282905 0.217095
H H 0.955211 0.304893 0.195107
O O 0.133981 0.281898 0.781898
C C 0.0269046 0.282905 0.782905
H H 0.0447894 0.304893 0.804893
O O 0.133981 0.718102 0.218102
C C 0.0269046 0.717095 0.217095
H H 0.0447894 0.695107 0.195107
O O 0.781898 0.866019 0.718102
C C 0.782905 0.973095 0.717095
H H 0.804893 0.955211 0.695107
O O 0.218102 0.866019 0.281898
C C 0.217095 0.973095 0.282905
H H 0.195107 0.955211 0.304893
O O 0.781898 0.133981 0.281898
C C 0.782905 0.0269046 0.282905
H H 0.804893 0.0447894 0.304893
O O 0.218102 0.133981 0.718102
C C 0.217095 0.0269046 0.717095
H H 0.195107 0.0447894 0.695107
O O 0.781898 0.718102 0.133981
C C 0.782905 0.717095 0.0269046
H H 0.804893 0.695107 0.0447894
O O 0.218102 0.281898 0.133981
C C 0.217095 0.282905 0.0269046
H H 0.195107 0.304893 0.0447894
Zn Zn 0.293396 0.706604 0.706604
O O 0.281898 0.718102 0.633981
C C 0.25 0.75 0.611296
C C 0.25 0.75 0.553809
C C 0.282905 0.717095 0.526905
H H 0.304893 0.695107 0.544789
Zn Zn 0.706604 0.293396 0.706604
O O 0.718102 0.281898 0.633981
C C 0.75 0.25 0.611296
C C 0.75 0.25 0.553809
C C 0.717095 0.282905 0.526905
H H 0.695107 0.304893 0.544789
Zn Zn 0.706604 0.706604 0.293396
O O 0.718102 0.718102 0.366019
C C 0.75 0.75 0.388704
C C 0.75 0.75 0.446191
C C 0.717095 0.717095 0.473095
H H 0.695107 0.695107 0.455211
Zn Zn 0.293396 0.293396 0.293396
O O 0.281898 0.281898 0.366019
C C 0.25 0.25 0.388704
C C 0.25 0.25 0.446191
C C 0.282905 0.282905 0.473095
H H 0.304893 0.304893 0.455211
O O 0.218102 0.633981 0.781898
C C 0.25 0.611296 0.75
C C 0.25 0.553809 0.75
C C 0.217095 0.526905 0.782905
H H 0.195107 0.544789 0.804893
O O 0.781898 0.633981 0.218102
C C 0.75 0.611296 0.25
C C 0.75 0.553809 0.25
C C 0.782905 0.526905 0.217095
H H 0.804893 0.544789 0.195107
O O 0.218102 0.366019 0.218102
C C 0.25 0.388704 0.25
C C 0.25 0.446191 0.25
C C 0.217095 0.473095 0.217095
H H 0.195107 0.455211 0.195107
O O 0.781898 0.366019 0.781898
C C 0.75 0.388704 0.75
C C 0.75 0.446191 0.75
C C 0.782905 0.473095 0.782905
H H 0.804893 0.455211 0.804893
O O 0.218102 0.781898 0.366019
C C 0.25 0.75 0.388704
C C 0.25 0.75 0.446191
C C 0.217095 0.782905 0.473095
H H 0.195107 0.804893 0.455211
O O 0.781898 0.218102 0.366019
C C 0.75 0.25 0.388704
C C 0.75 0.25 0.446191
C C 0.782905 0.217095 0.473095
H H 0.804893 0.195107 0.455211
O O 0.218102 0.218102 0.633981
C C 0.25 0.25 0.611296
C C 0.25 0.25 0.553809
C C 0.217095 0.217095 0.526905
H H 0.195107 0.195107 0.544789
O O 0.781898 0.781898 0.633981
C C 0.75 0.75 0.611296
C C 0.75 0.75 0.553809
C C 0.782905 0.782905 0.526905
H H 0.804893 0.804893 0.544789
Zn Zn 0.293396 0.706604 0.293396
O O 0.281898 0.633981 0.281898
C C 0.25 0.611296 0.25
C C 0.25 0.553809 0.25
C C 0.282905 0.526905 0.282905
H H 0.304893 0.544789 0.304893
Zn Zn 0.706604 0.706604 0.706604
O O 0.718102 0.633981 0.718102
C C 0.75 0.611296 0.75
C C 0.75 0.553809 0.75
C C 0.717095 0.526905 0.717095
H H 0.695107 0.544789 0.695107
Zn Zn 0.706604 0.293396 0.293396
O O 0.718102 0.366019 0.281898
C C 0.75 0.388704 0.25
C C 0.75 0.446191 0.25
C C 0.717095 0.473095 0.282905
H H 0.695107 0.455211 0.304893
Zn Zn 0.293396 0.293396 0.706604
O O 0.281898 0.366019 0.718102
C C 0.25 0.388704 0.75
C C 0.25 0.446191 0.75
C C 0.282905 0.473095 0.717095
H H 0.304893 0.455211 0.695107
O O 0.718102 0.281898 0.366019
C C 0.717095 0.282905 0.473095
H H 0.695107 0.304893 0.455211
O O 0.281898 0.718102 0.366019
C C 0.282905 0.717095 0.473095
H H 0.304893 0.695107 0.455211
O O 0.281898 0.281898 0.633981
C C 0.282905 0.282905 0.526905
H H 0.304893 0.304893 0.544789
O O 0.718102 0.718102 0.633981
C C 0.717095 0.717095 0.526905
H H 0.695107 0.695107 0.544789
O O 0.781898 0.366019 0.218102
C C 0.782905 0.473095 0.217095
H H 0.804893 0.455211 0.195107
O O 0.218102 0.366019 0.781898
C C 0.217095 0.473095 0.782905
H H 0.195107 0.455211 0.804893
O O 0.781898 0.633981 0.781898
C C 0.782905 0.526905 0.782905
H H 0.804893 0.544789 0.804893
O O 0.218102 0.633981 0.218102
C C 0.217095 0.526905 0.217095
H H 0.195107 0.544789 0.195107
O O 0.781898 0.218102 0.633981
C C 0.782905 0.217095 0.526905
H H 0.804893 0.195107 0.544789
O O 0.218102 0.781898 0.633981
C C 0.217095 0.782905 0.526905
H H 0.195107 0.804893 0.544789
O O 0.781898 0.781898 0.366019
C C 0.782905 0.782905 0.473095
H H 0.804893 0.804893 0.455211
O O 0.218102 0.218102 0.366019
C C 0.217095 0.217095 0.473095
H H 0.195107 0.195107 0.455211
O O 0.718102 0.366019 0.718102
C C 0.717095 0.473095 0.717095
H H 0.695107 0.455211 0.695107
O O 0.281898 0.366019 0.281898
C C 0.282905 0.473095 0.282905
H H 0.304893 0.455211 0.304893
O O 0.281898 0.633981 0.718102
C C 0.282905 0.526905 0.717095
H H 0.304893 0.544789 0.695107
O O 0.718102 0.633981 0.281898
C C 0.717095 0.526905 0.282905
H H 0.695107 0.544789 0.304893
O O 0.633981 0.281898 0.718102
C C 0.611296 0.25 0.75
C C 0.553809 0.25 0.75
C C 0.526905 0.282905 0.717095
H H 0.544789 0.304893 0.695107
O O 0.633981 0.718102 0.281898
C C 0.611296 0.75 0.25
C C 0.553809 0.75 0.25
C C 0.526905 0.717095 0.282905
H H 0.544789 0.695107 0.304893
O O 0.366019 0.718102 0.718102
C C 0.388704 0.75 0.75
C C 0.446191 0.75 0.75
C C 0.473095 0.717095 0.717095
H H 0.455211 0.695107 0.695107
O O 0.366019 0.281898 0.281898
C C 0.388704 0.25 0.25
C C 0.446191 0.25 0.25
C C 0.473095 0.282905 0.282905
H H 0.455211 0.304893 0.304893
O O 0.633981 0.218102 0.218102
C C 0.611296 0.25 0.25
C C 0.553809 0.25 0.25
C C 0.526905 0.217095 0.217095
H H 0.544789 0.195107 0.195107
O O 0.633981 0.781898 0.781898
C C 0.611296 0.75 0.75
C C 0.553809 0.75 0.75
C C 0.526905 0.782905 0.782905
H H 0.544789 0.804893 0.804893
O O 0.366019 0.218102 0.781898
C C 0.388704 0.25 0.75
C C 0.446191 0.25 0.75
C C 0.473095 0.217095 0.782905
H H 0.455211 0.195107 0.804893
O O 0.366019 0.781898 0.218102
C C 0.388704 0.75 0.25
C C 0.446191 0.75 0.25
C C 0.473095 0.782905 0.217095
H H 0.455211 0.804893 0.195107
O O 0.366019 0.718102 0.281898
C C 0.473095 0.717095 0.282905
H H 0.455211 0.695107 0.304893
O O 0.366019 0.281898 0.718102
C C 0.473095 0.282905 0.717095
H H 0.455211 0.304893 0.695107
O O 0.633981 0.281898 0.281898
C C 0.526905 0.282905 0.282905
H H 0.544789 0.304893 0.304893
O O 0.633981 0.718102 0.718102
C C 0.526905 0.717095 0.717095
H H 0.544789 0.695107 0.695107
O O 0.366019 0.781898 0.781898
C C 0.473095 0.782905 0.782905
H H 0.455211 0.804893 0.804893
O O 0.366019 0.218102 0.218102
C C 0.473095 0.217095 0.217095
H H 0.455211 0.195107 0.195107
O O 0.633981 0.781898 0.218102
C C 0.526905 0.782905 0.217095
H H 0.544789 0.804893 0.195107
O O 0.633981 0.218102 0.781898
C C 0.526905 0.217095 0.782905
H H 0.544789 0.195107 0.804893
O O 0.718102 0.218102 0.866019
O O 0.281898 0.781898 0.866019
O O 0.866019 0.718102 0.218102
O O 0.866019 0.281898 0.781898
O O 0.218102 0.866019 0.718102
O O 0.781898 0.866019 0.281898
O O 0.218102 0.281898 0.866019
O O 0.781898 0.718102 0.866019
O O 0.718102 0.781898 0.866019
O O 0.281898 0.218102 0.866019
O O 0.781898 0.281898 0.866019
O O 0.218102 0.718102 0.866019
O O 0.718102 0.866019 0.218102
O O 0.281898 0.866019 0.781898
O O 0.866019 0.781898 0.281898
O O 0.866019 0.218102 0.718102
C C 0.75 0.25 0.888704
C C 0.75 0.25 0.946191
C C 0.717095 0.217095 0.973095
H H 0.695107 0.195107 0.955211
C C 0.25 0.75 0.888704
C C 0.25 0.75 0.946191
C C 0.282905 0.782905 0.973095
H H 0.304893 0.804893 0.955211
C C 0.25 0.25 0.888704
C C 0.25 0.25 0.946191
C C 0.217095 0.282905 0.973095
H H 0.195107 0.304893 0.955211
C C 0.75 0.75 0.888704
C C 0.75 0.75 0.946191
C C 0.782905 0.717095 0.973095
H H 0.804893 0.695107 0.955211
C C 0.717095 0.782905 0.973095
H H 0.695107 0.804893 0.955211
C C 0.282905 0.217095 0.973095
H H 0.304893 0.195107 0.955211
C C 0.782905 0.282905 0.973095
H H 0.804893 0.304893 0.955211
C C 0.217095 0.717095 0.973095
H H 0.195107 0.695107 0.955211
C C 0.25 0.888704 0.75
C C 0.25 0.946191 0.75
C C 0.217095 0.973095 0.717095
H H 0.195107 0.955211 0.695107
C C 0.75 0.888704 0.25
C C 0.75 0.946191 0.25
C C 0.782905 0.973095 0.282905
H H 0.804893 0.955211 0.304893
C C 0.717095 0.973095 0.217095
H H 0.695107 0.955211 0.195107
C C 0.282905 0.973095 0.782905
H H 0.304893 0.955211 0.804893
C C 0.888704 0.75 0.25
C C 0.946191 0.75 0.25
C C 0.973095 0.717095 0.217095
H H 0.955211 0.695107 0.195107
C C 0.888704 0.25 0.75
C C 0.946191 0.25 0.75
C C 0.973095 0.282905 0.782905
H H 0.955211 0.304893 0.804893
C C 0.973095 0.782905 0.282905
H H 0.955211 0.804893 0.304893
C C 0.973095 0.217095 0.717095
H H 0.955211 0.195107 0.695107

#END
